<routes>
             <vType accel="1.0" decel="4.5" id="standard_car" length="5.0" minGap="2.5" maxSpeed="25" sigma="0.5" />
                    
    <trip id="0" depart="9.0" from="ce1" to="ce4" type="standard_car" departLane="random" departSpeed="10" />
    <trip id="1" depart="19.0" from="ce3" to="ce5" type="standard_car" departLane="random" departSpeed="10" />
    <trip id="2" depart="20.0" from="ce6" to="ce2" type="standard_car" departLane="random" departSpeed="10" />
    <trip id="3" depart="24.0" from="ce6" to="ce4" type="standard_car" departLane="random" departSpeed="10" />
    <trip id="4" depart="47.0" from="ce3" to="ce2" type="standard_car" departLane="random" departSpeed="10" />
    <trip id="5" depart="50.0" from="ce1" to="ce4" type="standard_car" departLane="random" departSpeed="10" />
    <trip id="6" depart="60.0" from="ce3" to="ce7" type="standard_car" departLane="random" departSpeed="10" />
    <trip id="7" depart="67.0" from="ce1" to="ce7" type="standard_car" departLane="random" departSpeed="10" />
    <trip id="8" depart="73.0" from="ce3" to="ce7" type="standard_car" departLane="random" departSpeed="10" />
    <trip id="9" depart="82.0" from="ce1" to="ce4" type="standard_car" departLane="random" departSpeed="10" />
    <trip id="10" depart="82.0" from="ce1" to="ce7" type="standard_car" departLane="random" departSpeed="10" />
    <trip id="11" depart="85.0" from="ce3" to="ce2" type="standard_car" departLane="random" departSpeed="10" />
    <trip id="12" depart="86.0" from="ce6" to="ce7" type="standard_car" departLane="random" departSpeed="10" />
    <trip id="13" depart="101.0" from="ce1" to="ce2" type="standard_car" departLane="random" departSpeed="10" />
    <trip id="14" depart="117.0" from="ce6" to="ce4" type="standard_car" departLane="random" departSpeed="10" />
    <trip id="15" depart="126.0" from="ce6" to="ce7" type="standard_car" departLane="random" departSpeed="10" />
    <trip id="16" depart="133.0" from="ce1" to="ce2" type="standard_car" departLane="random" departSpeed="10" />
    <trip id="17" depart="134.0" from="ce1" to="ce7" type="standard_car" departLane="random" departSpeed="10" />
    <trip id="18" depart="145.0" from="ce3" to="ce7" type="standard_car" departLane="random" departSpeed="10" />
    <trip id="19" depart="149.0" from="ce3" to="ce2" type="standard_car" departLane="random" departSpeed="10" />
    <trip id="20" depart="152.0" from="ce1" to="ce4" type="standard_car" departLane="random" departSpeed="10" />
    <trip id="21" depart="179.0" from="ce6" to="ce4" type="standard_car" departLane="random" departSpeed="10" />
    <trip id="22" depart="182.0" from="ce1" to="ce4" type="standard_car" departLane="random" departSpeed="10" />
    <trip id="23" depart="186.0" from="ce6" to="ce4" type="standard_car" departLane="random" departSpeed="10" />
    <trip id="24" depart="188.0" from="ce6" to="ce4" type="standard_car" departLane="random" departSpeed="10" />
    <trip id="25" depart="188.0" from="ce3" to="ce7" type="standard_car" departLane="random" departSpeed="10" />
    <trip id="26" depart="197.0" from="ce1" to="ce2" type="standard_car" departLane="random" departSpeed="10" />
    <trip id="27" depart="198.0" from="ce8" to="ce4" type="standard_car" departLane="random" departSpeed="10" />
    <trip id="28" depart="203.0" from="ce1" to="ce5" type="standard_car" departLane="random" departSpeed="10" />
    <trip id="29" depart="205.0" from="ce6" to="ce5" type="standard_car" departLane="random" departSpeed="10" />
    <trip id="30" depart="207.0" from="ce8" to="ce5" type="standard_car" departLane="random" departSpeed="10" />
    <trip id="31" depart="213.0" from="ce1" to="ce7" type="standard_car" departLane="random" departSpeed="10" />
    <trip id="32" depart="227.0" from="ce8" to="ce4" type="standard_car" departLane="random" departSpeed="10" />
    <trip id="33" depart="235.0" from="ce6" to="ce2" type="standard_car" departLane="random" departSpeed="10" />
    <trip id="34" depart="237.0" from="ce6" to="ce7" type="standard_car" departLane="random" departSpeed="10" />
    <trip id="35" depart="239.0" from="ce6" to="ce7" type="standard_car" departLane="random" departSpeed="10" />
    <trip id="36" depart="254.0" from="ce3" to="ce5" type="standard_car" departLane="random" departSpeed="10" />
    <trip id="37" depart="258.0" from="ce1" to="ce5" type="standard_car" departLane="random" departSpeed="10" />
    <trip id="38" depart="264.0" from="ce1" to="ce2" type="standard_car" departLane="random" departSpeed="10" />
    <trip id="39" depart="276.0" from="ce3" to="ce5" type="standard_car" departLane="random" departSpeed="10" />
    <trip id="40" depart="290.0" from="ce1" to="ce5" type="standard_car" departLane="random" departSpeed="10" />
    <trip id="41" depart="295.0" from="ce6" to="ce7" type="standard_car" departLane="random" departSpeed="10" />
    <trip id="42" depart="302.0" from="ce6" to="ce4" type="standard_car" departLane="random" departSpeed="10" />
    <trip id="43" depart="321.0" from="ce1" to="ce7" type="standard_car" departLane="random" departSpeed="10" />
    <trip id="44" depart="323.0" from="ce3" to="ce7" type="standard_car" departLane="random" departSpeed="10" />
    <trip id="45" depart="344.0" from="ce1" to="ce5" type="standard_car" departLane="random" departSpeed="10" />
    <trip id="46" depart="355.0" from="ce3" to="ce7" type="standard_car" departLane="random" departSpeed="10" />
    <trip id="47" depart="361.0" from="ce1" to="ce7" type="standard_car" departLane="random" departSpeed="10" />
    <trip id="48" depart="366.0" from="ce1" to="ce7" type="standard_car" departLane="random" departSpeed="10" />
    <trip id="49" depart="367.0" from="ce6" to="ce4" type="standard_car" departLane="random" departSpeed="10" />
    <trip id="50" depart="383.0" from="ce6" to="ce2" type="standard_car" departLane="random" departSpeed="10" />
    <trip id="51" depart="389.0" from="ce1" to="ce4" type="standard_car" departLane="random" departSpeed="10" />
    <trip id="52" depart="394.0" from="ce6" to="ce7" type="standard_car" departLane="random" departSpeed="10" />
    <trip id="53" depart="399.0" from="ce6" to="ce4" type="standard_car" departLane="random" departSpeed="10" />
    <trip id="54" depart="404.0" from="ce1" to="ce7" type="standard_car" departLane="random" departSpeed="10" />
    <trip id="55" depart="410.0" from="ce1" to="ce4" type="standard_car" departLane="random" departSpeed="10" />
    <trip id="56" depart="413.0" from="ce6" to="ce2" type="standard_car" departLane="random" departSpeed="10" />
    <trip id="57" depart="449.0" from="ce6" to="ce2" type="standard_car" departLane="random" departSpeed="10" />
    <trip id="58" depart="458.0" from="ce6" to="ce7" type="standard_car" departLane="random" departSpeed="10" />
    <trip id="59" depart="471.0" from="ce1" to="ce5" type="standard_car" departLane="random" departSpeed="10" />
    <trip id="60" depart="482.0" from="ce3" to="ce2" type="standard_car" departLane="random" departSpeed="10" />
    <trip id="61" depart="484.0" from="ce6" to="ce5" type="standard_car" departLane="random" departSpeed="10" />
    <trip id="62" depart="487.0" from="ce1" to="ce5" type="standard_car" departLane="random" departSpeed="10" />
    <trip id="63" depart="493.0" from="ce6" to="ce2" type="standard_car" departLane="random" departSpeed="10" />
    <trip id="64" depart="500.0" from="ce3" to="ce7" type="standard_car" departLane="random" departSpeed="10" />
    <trip id="65" depart="502.0" from="ce3" to="ce5" type="standard_car" departLane="random" departSpeed="10" />
    <trip id="66" depart="505.0" from="ce1" to="ce5" type="standard_car" departLane="random" departSpeed="10" />
    <trip id="67" depart="513.0" from="ce3" to="ce2" type="standard_car" departLane="random" departSpeed="10" />
    <trip id="68" depart="524.0" from="ce1" to="ce7" type="standard_car" departLane="random" departSpeed="10" />
    <trip id="69" depart="530.0" from="ce6" to="ce4" type="standard_car" departLane="random" departSpeed="10" />
    <trip id="70" depart="543.0" from="ce6" to="ce4" type="standard_car" departLane="random" departSpeed="10" />
    <trip id="71" depart="564.0" from="ce6" to="ce4" type="standard_car" departLane="random" departSpeed="10" />
    <trip id="72" depart="567.0" from="ce1" to="ce2" type="standard_car" departLane="random" departSpeed="10" />
    <trip id="73" depart="581.0" from="ce1" to="ce5" type="standard_car" departLane="random" departSpeed="10" />
    <trip id="74" depart="582.0" from="ce1" to="ce7" type="standard_car" departLane="random" departSpeed="10" />
    <trip id="75" depart="599.0" from="ce1" to="ce7" type="standard_car" departLane="random" departSpeed="10" />
    <trip id="76" depart="605.0" from="ce3" to="ce2" type="standard_car" departLane="random" departSpeed="10" />
    <trip id="77" depart="612.0" from="ce1" to="ce5" type="standard_car" departLane="random" departSpeed="10" />
    <trip id="78" depart="614.0" from="ce1" to="ce5" type="standard_car" departLane="random" departSpeed="10" />
    <trip id="79" depart="615.0" from="ce1" to="ce5" type="standard_car" departLane="random" departSpeed="10" />
    <trip id="80" depart="626.0" from="ce3" to="ce4" type="standard_car" departLane="random" departSpeed="10" />
    <trip id="81" depart="632.0" from="ce1" to="ce5" type="standard_car" departLane="random" departSpeed="10" />
    <trip id="82" depart="643.0" from="ce6" to="ce7" type="standard_car" departLane="random" departSpeed="10" />
    <trip id="83" depart="643.0" from="ce1" to="ce7" type="standard_car" departLane="random" departSpeed="10" />
    <trip id="84" depart="645.0" from="ce1" to="ce5" type="standard_car" departLane="random" departSpeed="10" />
    <trip id="85" depart="647.0" from="ce3" to="ce5" type="standard_car" departLane="random" departSpeed="10" />
    <trip id="86" depart="652.0" from="ce6" to="ce4" type="standard_car" departLane="random" departSpeed="10" />
    <trip id="87" depart="676.0" from="ce1" to="ce5" type="standard_car" departLane="random" departSpeed="10" />
    <trip id="88" depart="689.0" from="ce6" to="ce2" type="standard_car" departLane="random" departSpeed="10" />
    <trip id="89" depart="698.0" from="ce1" to="ce2" type="standard_car" departLane="random" departSpeed="10" />
    <trip id="90" depart="701.0" from="ce6" to="ce5" type="standard_car" departLane="random" departSpeed="10" />
    <trip id="91" depart="701.0" from="ce3" to="ce2" type="standard_car" departLane="random" departSpeed="10" />
    <trip id="92" depart="705.0" from="ce1" to="ce4" type="standard_car" departLane="random" departSpeed="10" />
    <trip id="93" depart="710.0" from="ce1" to="ce7" type="standard_car" departLane="random" departSpeed="10" />
    <trip id="94" depart="723.0" from="ce1" to="ce5" type="standard_car" departLane="random" departSpeed="10" />
    <trip id="95" depart="742.0" from="ce1" to="ce7" type="standard_car" departLane="random" departSpeed="10" />
    <trip id="96" depart="753.0" from="ce6" to="ce4" type="standard_car" departLane="random" departSpeed="10" />
    <trip id="97" depart="757.0" from="ce6" to="ce7" type="standard_car" departLane="random" departSpeed="10" />
    <trip id="98" depart="765.0" from="ce1" to="ce5" type="standard_car" departLane="random" departSpeed="10" />
    <trip id="99" depart="768.0" from="ce3" to="ce2" type="standard_car" departLane="random" departSpeed="10" />
    <trip id="100" depart="773.0" from="ce3" to="ce7" type="standard_car" departLane="random" departSpeed="10" />
    <trip id="101" depart="780.0" from="ce1" to="ce5" type="standard_car" departLane="random" departSpeed="10" />
    <trip id="102" depart="794.0" from="ce1" to="ce2" type="standard_car" departLane="random" departSpeed="10" />
    <trip id="103" depart="799.0" from="ce6" to="ce2" type="standard_car" departLane="random" departSpeed="10" />
    <trip id="104" depart="803.0" from="ce3" to="ce5" type="standard_car" departLane="random" departSpeed="10" />
    <trip id="105" depart="810.0" from="ce1" to="ce4" type="standard_car" departLane="random" departSpeed="10" />
    <trip id="106" depart="811.0" from="ce3" to="ce7" type="standard_car" departLane="random" departSpeed="10" />
    <trip id="107" depart="817.0" from="ce6" to="ce7" type="standard_car" departLane="random" departSpeed="10" />
    <trip id="108" depart="817.0" from="ce3" to="ce5" type="standard_car" departLane="random" departSpeed="10" />
    <trip id="109" depart="818.0" from="ce3" to="ce2" type="standard_car" departLane="random" departSpeed="10" />
    <trip id="110" depart="821.0" from="ce3" to="ce7" type="standard_car" departLane="random" departSpeed="10" />
    <trip id="111" depart="821.0" from="ce1" to="ce7" type="standard_car" departLane="random" departSpeed="10" />
    <trip id="112" depart="833.0" from="ce6" to="ce5" type="standard_car" departLane="random" departSpeed="10" />
    <trip id="113" depart="841.0" from="ce8" to="ce5" type="standard_car" departLane="random" departSpeed="10" />
    <trip id="114" depart="847.0" from="ce1" to="ce5" type="standard_car" departLane="random" departSpeed="10" />
    <trip id="115" depart="847.0" from="ce1" to="ce4" type="standard_car" departLane="random" departSpeed="10" />
    <trip id="116" depart="849.0" from="ce6" to="ce4" type="standard_car" departLane="random" departSpeed="10" />
    <trip id="117" depart="858.0" from="ce1" to="ce5" type="standard_car" departLane="random" departSpeed="10" />
    <trip id="118" depart="861.0" from="ce3" to="ce7" type="standard_car" departLane="random" departSpeed="10" />
    <trip id="119" depart="863.0" from="ce1" to="ce7" type="standard_car" departLane="random" departSpeed="10" />
    <trip id="120" depart="869.0" from="ce1" to="ce4" type="standard_car" departLane="random" departSpeed="10" />
    <trip id="121" depart="875.0" from="ce6" to="ce7" type="standard_car" departLane="random" departSpeed="10" />
    <trip id="122" depart="880.0" from="ce6" to="ce2" type="standard_car" departLane="random" departSpeed="10" />
    <trip id="123" depart="881.0" from="ce6" to="ce4" type="standard_car" departLane="random" departSpeed="10" />
    <trip id="124" depart="894.0" from="ce6" to="ce5" type="standard_car" departLane="random" departSpeed="10" />
    <trip id="125" depart="903.0" from="ce1" to="ce5" type="standard_car" departLane="random" departSpeed="10" />
    <trip id="126" depart="903.0" from="ce1" to="ce5" type="standard_car" departLane="random" departSpeed="10" />
    <trip id="127" depart="904.0" from="ce1" to="ce4" type="standard_car" departLane="random" departSpeed="10" />
    <trip id="128" depart="905.0" from="ce1" to="ce7" type="standard_car" departLane="random" departSpeed="10" />
    <trip id="129" depart="907.0" from="ce6" to="ce7" type="standard_car" departLane="random" departSpeed="10" />
    <trip id="130" depart="911.0" from="ce6" to="ce4" type="standard_car" departLane="random" departSpeed="10" />
    <trip id="131" depart="911.0" from="ce1" to="ce5" type="standard_car" departLane="random" departSpeed="10" />
    <trip id="132" depart="919.0" from="ce3" to="ce7" type="standard_car" departLane="random" departSpeed="10" />
    <trip id="133" depart="920.0" from="ce1" to="ce7" type="standard_car" departLane="random" departSpeed="10" />
    <trip id="134" depart="920.0" from="ce1" to="ce5" type="standard_car" departLane="random" departSpeed="10" />
    <trip id="135" depart="924.0" from="ce6" to="ce7" type="standard_car" departLane="random" departSpeed="10" />
    <trip id="136" depart="933.0" from="ce6" to="ce2" type="standard_car" departLane="random" departSpeed="10" />
    <trip id="137" depart="946.0" from="ce6" to="ce7" type="standard_car" departLane="random" departSpeed="10" />
    <trip id="138" depart="946.0" from="ce6" to="ce7" type="standard_car" departLane="random" departSpeed="10" />
    <trip id="139" depart="947.0" from="ce3" to="ce5" type="standard_car" departLane="random" departSpeed="10" />
    <trip id="140" depart="959.0" from="ce1" to="ce4" type="standard_car" departLane="random" departSpeed="10" />
    <trip id="141" depart="967.0" from="ce1" to="ce5" type="standard_car" departLane="random" departSpeed="10" />
    <trip id="142" depart="967.0" from="ce3" to="ce2" type="standard_car" departLane="random" departSpeed="10" />
    <trip id="143" depart="971.0" from="ce3" to="ce5" type="standard_car" departLane="random" departSpeed="10" />
    <trip id="144" depart="974.0" from="ce1" to="ce5" type="standard_car" departLane="random" departSpeed="10" />
    <trip id="145" depart="983.0" from="ce1" to="ce5" type="standard_car" departLane="random" departSpeed="10" />
    <trip id="146" depart="998.0" from="ce1" to="ce5" type="standard_car" departLane="random" departSpeed="10" />
    <trip id="147" depart="1040.0" from="ce1" to="ce4" type="standard_car" departLane="random" departSpeed="10" />
    <trip id="148" depart="1051.0" from="ce3" to="ce2" type="standard_car" departLane="random" departSpeed="10" />
    <trip id="149" depart="1058.0" from="ce1" to="ce5" type="standard_car" departLane="random" departSpeed="10" />
    <trip id="150" depart="1062.0" from="ce1" to="ce7" type="standard_car" departLane="random" departSpeed="10" />
    <trip id="151" depart="1070.0" from="ce6" to="ce7" type="standard_car" departLane="random" departSpeed="10" />
    <trip id="152" depart="1073.0" from="ce1" to="ce4" type="standard_car" departLane="random" departSpeed="10" />
    <trip id="153" depart="1078.0" from="ce6" to="ce5" type="standard_car" departLane="random" departSpeed="10" />
    <trip id="154" depart="1092.0" from="ce3" to="ce7" type="standard_car" departLane="random" departSpeed="10" />
    <trip id="155" depart="1098.0" from="ce1" to="ce4" type="standard_car" departLane="random" departSpeed="10" />
    <trip id="156" depart="1102.0" from="ce1" to="ce7" type="standard_car" departLane="random" departSpeed="10" />
    <trip id="157" depart="1111.0" from="ce6" to="ce4" type="standard_car" departLane="random" departSpeed="10" />
    <trip id="158" depart="1113.0" from="ce8" to="ce5" type="standard_car" departLane="random" departSpeed="10" />
    <trip id="159" depart="1116.0" from="ce1" to="ce7" type="standard_car" departLane="random" departSpeed="10" />
    <trip id="160" depart="1117.0" from="ce6" to="ce2" type="standard_car" departLane="random" departSpeed="10" />
    <trip id="161" depart="1129.0" from="ce6" to="ce7" type="standard_car" departLane="random" departSpeed="10" />
    <trip id="162" depart="1130.0" from="ce6" to="ce4" type="standard_car" departLane="random" departSpeed="10" />
    <trip id="163" depart="1140.0" from="ce1" to="ce5" type="standard_car" departLane="random" departSpeed="10" />
    <trip id="164" depart="1144.0" from="ce1" to="ce2" type="standard_car" departLane="random" departSpeed="10" />
    <trip id="165" depart="1158.0" from="ce1" to="ce4" type="standard_car" departLane="random" departSpeed="10" />
    <trip id="166" depart="1161.0" from="ce1" to="ce7" type="standard_car" departLane="random" departSpeed="10" />
    <trip id="167" depart="1167.0" from="ce6" to="ce2" type="standard_car" departLane="random" departSpeed="10" />
    <trip id="168" depart="1177.0" from="ce6" to="ce2" type="standard_car" departLane="random" departSpeed="10" />
    <trip id="169" depart="1177.0" from="ce1" to="ce4" type="standard_car" departLane="random" departSpeed="10" />
    <trip id="170" depart="1180.0" from="ce3" to="ce7" type="standard_car" departLane="random" departSpeed="10" />
    <trip id="171" depart="1193.0" from="ce6" to="ce4" type="standard_car" departLane="random" departSpeed="10" />
    <trip id="172" depart="1194.0" from="ce1" to="ce5" type="standard_car" departLane="random" departSpeed="10" />
    <trip id="173" depart="1203.0" from="ce3" to="ce5" type="standard_car" departLane="random" departSpeed="10" />
    <trip id="174" depart="1210.0" from="ce3" to="ce5" type="standard_car" departLane="random" departSpeed="10" />
    <trip id="175" depart="1211.0" from="ce6" to="ce4" type="standard_car" departLane="random" departSpeed="10" />
    <trip id="176" depart="1215.0" from="ce6" to="ce2" type="standard_car" departLane="random" departSpeed="10" />
    <trip id="177" depart="1220.0" from="ce1" to="ce4" type="standard_car" departLane="random" departSpeed="10" />
    <trip id="178" depart="1224.0" from="ce6" to="ce7" type="standard_car" departLane="random" departSpeed="10" />
    <trip id="179" depart="1248.0" from="ce3" to="ce7" type="standard_car" departLane="random" departSpeed="10" />
    <trip id="180" depart="1251.0" from="ce6" to="ce4" type="standard_car" departLane="random" departSpeed="10" />
    <trip id="181" depart="1251.0" from="ce1" to="ce2" type="standard_car" departLane="random" departSpeed="10" />
    <trip id="182" depart="1258.0" from="ce6" to="ce2" type="standard_car" departLane="random" departSpeed="10" />
    <trip id="183" depart="1262.0" from="ce6" to="ce4" type="standard_car" departLane="random" departSpeed="10" />
    <trip id="184" depart="1263.0" from="ce1" to="ce4" type="standard_car" departLane="random" departSpeed="10" />
    <trip id="185" depart="1266.0" from="ce1" to="ce5" type="standard_car" departLane="random" departSpeed="10" />
    <trip id="186" depart="1271.0" from="ce3" to="ce5" type="standard_car" departLane="random" departSpeed="10" />
    <trip id="187" depart="1286.0" from="ce1" to="ce7" type="standard_car" departLane="random" departSpeed="10" />
    <trip id="188" depart="1292.0" from="ce1" to="ce7" type="standard_car" departLane="random" departSpeed="10" />
    <trip id="189" depart="1314.0" from="ce1" to="ce2" type="standard_car" departLane="random" departSpeed="10" />
    <trip id="190" depart="1322.0" from="ce6" to="ce2" type="standard_car" departLane="random" departSpeed="10" />
    <trip id="191" depart="1324.0" from="ce1" to="ce7" type="standard_car" departLane="random" departSpeed="10" />
    <trip id="192" depart="1332.0" from="ce1" to="ce4" type="standard_car" departLane="random" departSpeed="10" />
    <trip id="193" depart="1350.0" from="ce1" to="ce5" type="standard_car" departLane="random" departSpeed="10" />
    <trip id="194" depart="1358.0" from="ce6" to="ce7" type="standard_car" departLane="random" departSpeed="10" />
    <trip id="195" depart="1359.0" from="ce1" to="ce5" type="standard_car" departLane="random" departSpeed="10" />
    <trip id="196" depart="1371.0" from="ce1" to="ce4" type="standard_car" departLane="random" departSpeed="10" />
    <trip id="197" depart="1371.0" from="ce3" to="ce4" type="standard_car" departLane="random" departSpeed="10" />
    <trip id="198" depart="1376.0" from="ce1" to="ce5" type="standard_car" departLane="random" departSpeed="10" />
    <trip id="199" depart="1379.0" from="ce6" to="ce2" type="standard_car" departLane="random" departSpeed="10" />
    <trip id="200" depart="1383.0" from="ce1" to="ce4" type="standard_car" departLane="random" departSpeed="10" />
    <trip id="201" depart="1396.0" from="ce1" to="ce5" type="standard_car" departLane="random" departSpeed="10" />
    <trip id="202" depart="1400.0" from="ce3" to="ce5" type="standard_car" departLane="random" departSpeed="10" />
    <trip id="203" depart="1401.0" from="ce6" to="ce4" type="standard_car" departLane="random" departSpeed="10" />
    <trip id="204" depart="1403.0" from="ce6" to="ce2" type="standard_car" departLane="random" departSpeed="10" />
    <trip id="205" depart="1408.0" from="ce3" to="ce4" type="standard_car" departLane="random" departSpeed="10" />
    <trip id="206" depart="1408.0" from="ce6" to="ce4" type="standard_car" departLane="random" departSpeed="10" />
    <trip id="207" depart="1415.0" from="ce6" to="ce7" type="standard_car" departLane="random" departSpeed="10" />
    <trip id="208" depart="1417.0" from="ce3" to="ce5" type="standard_car" departLane="random" departSpeed="10" />
    <trip id="209" depart="1422.0" from="ce6" to="ce4" type="standard_car" departLane="random" departSpeed="10" />
    <trip id="210" depart="1424.0" from="ce6" to="ce4" type="standard_car" departLane="random" departSpeed="10" />
    <trip id="211" depart="1427.0" from="ce1" to="ce7" type="standard_car" departLane="random" departSpeed="10" />
    <trip id="212" depart="1446.0" from="ce1" to="ce7" type="standard_car" departLane="random" departSpeed="10" />
    <trip id="213" depart="1460.0" from="ce6" to="ce4" type="standard_car" departLane="random" departSpeed="10" />
    <trip id="214" depart="1461.0" from="ce3" to="ce2" type="standard_car" departLane="random" departSpeed="10" />
    <trip id="215" depart="1463.0" from="ce8" to="ce7" type="standard_car" departLane="random" departSpeed="10" />
    <trip id="216" depart="1466.0" from="ce3" to="ce2" type="standard_car" departLane="random" departSpeed="10" />
    <trip id="217" depart="1470.0" from="ce6" to="ce2" type="standard_car" departLane="random" departSpeed="10" />
    <trip id="218" depart="1470.0" from="ce6" to="ce2" type="standard_car" departLane="random" departSpeed="10" />
    <trip id="219" depart="1480.0" from="ce1" to="ce4" type="standard_car" departLane="random" departSpeed="10" />
    <trip id="220" depart="1485.0" from="ce6" to="ce7" type="standard_car" departLane="random" departSpeed="10" />
    <trip id="221" depart="1485.0" from="ce6" to="ce2" type="standard_car" departLane="random" departSpeed="10" />
    <trip id="222" depart="1489.0" from="ce3" to="ce2" type="standard_car" departLane="random" departSpeed="10" />
    <trip id="223" depart="1494.0" from="ce1" to="ce5" type="standard_car" departLane="random" departSpeed="10" />
    <trip id="224" depart="1518.0" from="ce1" to="ce4" type="standard_car" departLane="random" departSpeed="10" />
    <trip id="225" depart="1532.0" from="ce3" to="ce7" type="standard_car" departLane="random" departSpeed="10" />
    <trip id="226" depart="1535.0" from="ce6" to="ce7" type="standard_car" departLane="random" departSpeed="10" />
    <trip id="227" depart="1543.0" from="ce1" to="ce7" type="standard_car" departLane="random" departSpeed="10" />
    <trip id="228" depart="1547.0" from="ce1" to="ce4" type="standard_car" departLane="random" departSpeed="10" />
    <trip id="229" depart="1548.0" from="ce1" to="ce7" type="standard_car" departLane="random" departSpeed="10" />
    <trip id="230" depart="1555.0" from="ce1" to="ce5" type="standard_car" departLane="random" departSpeed="10" />
    <trip id="231" depart="1561.0" from="ce1" to="ce7" type="standard_car" departLane="random" departSpeed="10" />
    <trip id="232" depart="1563.0" from="ce6" to="ce4" type="standard_car" departLane="random" departSpeed="10" />
    <trip id="233" depart="1569.0" from="ce6" to="ce4" type="standard_car" departLane="random" departSpeed="10" />
    <trip id="234" depart="1569.0" from="ce1" to="ce4" type="standard_car" departLane="random" departSpeed="10" />
    <trip id="235" depart="1573.0" from="ce1" to="ce7" type="standard_car" departLane="random" departSpeed="10" />
    <trip id="236" depart="1585.0" from="ce6" to="ce7" type="standard_car" departLane="random" departSpeed="10" />
    <trip id="237" depart="1604.0" from="ce3" to="ce5" type="standard_car" departLane="random" departSpeed="10" />
    <trip id="238" depart="1628.0" from="ce3" to="ce4" type="standard_car" departLane="random" departSpeed="10" />
    <trip id="239" depart="1634.0" from="ce6" to="ce2" type="standard_car" departLane="random" departSpeed="10" />
    <trip id="240" depart="1637.0" from="ce8" to="ce4" type="standard_car" departLane="random" departSpeed="10" />
    <trip id="241" depart="1649.0" from="ce1" to="ce7" type="standard_car" departLane="random" departSpeed="10" />
    <trip id="242" depart="1662.0" from="ce1" to="ce4" type="standard_car" departLane="random" departSpeed="10" />
    <trip id="243" depart="1664.0" from="ce6" to="ce2" type="standard_car" departLane="random" departSpeed="10" />
    <trip id="244" depart="1666.0" from="ce1" to="ce5" type="standard_car" departLane="random" departSpeed="10" />
    <trip id="245" depart="1673.0" from="ce1" to="ce5" type="standard_car" departLane="random" departSpeed="10" />
    <trip id="246" depart="1673.0" from="ce1" to="ce5" type="standard_car" departLane="random" departSpeed="10" />
    <trip id="247" depart="1684.0" from="ce6" to="ce7" type="standard_car" departLane="random" departSpeed="10" />
    <trip id="248" depart="1696.0" from="ce1" to="ce4" type="standard_car" departLane="random" departSpeed="10" />
    <trip id="249" depart="1700.0" from="ce1" to="ce4" type="standard_car" departLane="random" departSpeed="10" />
    <trip id="250" depart="1717.0" from="ce3" to="ce5" type="standard_car" departLane="random" departSpeed="10" />
    <trip id="251" depart="1720.0" from="ce3" to="ce2" type="standard_car" departLane="random" departSpeed="10" />
    <trip id="252" depart="1725.0" from="ce6" to="ce7" type="standard_car" departLane="random" departSpeed="10" />
    <trip id="253" depart="1736.0" from="ce6" to="ce7" type="standard_car" departLane="random" departSpeed="10" />
    <trip id="254" depart="1746.0" from="ce3" to="ce7" type="standard_car" departLane="random" departSpeed="10" />
    <trip id="255" depart="1746.0" from="ce6" to="ce2" type="standard_car" departLane="random" departSpeed="10" />
    <trip id="256" depart="1752.0" from="ce1" to="ce4" type="standard_car" departLane="random" departSpeed="10" />
    <trip id="257" depart="1753.0" from="ce3" to="ce5" type="standard_car" departLane="random" departSpeed="10" />
    <trip id="258" depart="1760.0" from="ce6" to="ce7" type="standard_car" departLane="random" departSpeed="10" />
    <trip id="259" depart="1761.0" from="ce1" to="ce7" type="standard_car" departLane="random" departSpeed="10" />
    <trip id="260" depart="1766.0" from="ce6" to="ce2" type="standard_car" departLane="random" departSpeed="10" />