<routes>
             <vType accel="1.0" decel="4.5" id="standard_car" length="5.0" minGap="2.5" maxSpeed="25" sigma="0.5" />
                    
    <trip id="0" depart="4.0" from="ce6" to="ce4" type="standard_car" departLane="random" departSpeed="10" />
    <trip id="1" depart="4.0" from="ce6" to="ce4" type="standard_car" departLane="random" departSpeed="10" />
    <trip id="2" depart="5.0" from="ce3" to="ce5" type="standard_car" departLane="random" departSpeed="10" />
    <trip id="3" depart="6.0" from="ce6" to="ce7" type="standard_car" departLane="random" departSpeed="10" />
    <trip id="4" depart="14.0" from="ce3" to="ce5" type="standard_car" departLane="random" departSpeed="10" />
    <trip id="5" depart="18.0" from="ce3" to="ce2" type="standard_car" departLane="random" departSpeed="10" />
    <trip id="6" depart="23.0" from="ce6" to="ce7" type="standard_car" departLane="random" departSpeed="10" />
    <trip id="7" depart="24.0" from="ce3" to="ce5" type="standard_car" departLane="random" departSpeed="10" />
    <trip id="8" depart="28.0" from="ce3" to="ce4" type="standard_car" departLane="random" departSpeed="10" />
    <trip id="9" depart="34.0" from="ce3" to="ce5" type="standard_car" departLane="random" departSpeed="10" />
    <trip id="10" depart="34.0" from="ce6" to="ce7" type="standard_car" departLane="random" departSpeed="10" />
    <trip id="11" depart="36.0" from="ce6" to="ce7" type="standard_car" departLane="random" departSpeed="10" />
    <trip id="12" depart="36.0" from="ce1" to="ce2" type="standard_car" departLane="random" departSpeed="10" />
    <trip id="13" depart="37.0" from="ce6" to="ce4" type="standard_car" departLane="random" departSpeed="10" />
    <trip id="14" depart="38.0" from="ce6" to="ce4" type="standard_car" departLane="random" departSpeed="10" />
    <trip id="15" depart="41.0" from="ce6" to="ce7" type="standard_car" departLane="random" departSpeed="10" />
    <trip id="16" depart="46.0" from="ce3" to="ce4" type="standard_car" departLane="random" departSpeed="10" />
    <trip id="17" depart="50.0" from="ce8" to="ce2" type="standard_car" departLane="random" departSpeed="10" />
    <trip id="18" depart="52.0" from="ce6" to="ce7" type="standard_car" departLane="random" departSpeed="10" />
    <trip id="19" depart="54.0" from="ce6" to="ce2" type="standard_car" departLane="random" departSpeed="10" />
    <trip id="20" depart="55.0" from="ce6" to="ce5" type="standard_car" departLane="random" departSpeed="10" />
    <trip id="21" depart="58.0" from="ce3" to="ce5" type="standard_car" departLane="random" departSpeed="10" />
    <trip id="22" depart="62.0" from="ce1" to="ce5" type="standard_car" departLane="random" departSpeed="10" />
    <trip id="23" depart="64.0" from="ce6" to="ce5" type="standard_car" departLane="random" departSpeed="10" />
    <trip id="24" depart="68.0" from="ce6" to="ce4" type="standard_car" departLane="random" departSpeed="10" />
    <trip id="25" depart="68.0" from="ce3" to="ce5" type="standard_car" departLane="random" departSpeed="10" />
    <trip id="26" depart="70.0" from="ce6" to="ce7" type="standard_car" departLane="random" departSpeed="10" />
    <trip id="27" depart="73.0" from="ce6" to="ce4" type="standard_car" departLane="random" departSpeed="10" />
    <trip id="28" depart="74.0" from="ce3" to="ce2" type="standard_car" departLane="random" departSpeed="10" />
    <trip id="29" depart="75.0" from="ce6" to="ce2" type="standard_car" departLane="random" departSpeed="10" />
    <trip id="30" depart="76.0" from="ce6" to="ce7" type="standard_car" departLane="random" departSpeed="10" />
    <trip id="31" depart="78.0" from="ce6" to="ce7" type="standard_car" departLane="random" departSpeed="10" />
    <trip id="32" depart="78.0" from="ce3" to="ce2" type="standard_car" departLane="random" departSpeed="10" />
    <trip id="33" depart="80.0" from="ce6" to="ce2" type="standard_car" departLane="random" departSpeed="10" />
    <trip id="34" depart="83.0" from="ce6" to="ce4" type="standard_car" departLane="random" departSpeed="10" />
    <trip id="35" depart="85.0" from="ce3" to="ce5" type="standard_car" departLane="random" departSpeed="10" />
    <trip id="36" depart="88.0" from="ce6" to="ce2" type="standard_car" departLane="random" departSpeed="10" />
    <trip id="37" depart="89.0" from="ce6" to="ce2" type="standard_car" departLane="random" departSpeed="10" />
    <trip id="38" depart="90.0" from="ce6" to="ce7" type="standard_car" departLane="random" departSpeed="10" />
    <trip id="39" depart="91.0" from="ce6" to="ce4" type="standard_car" departLane="random" departSpeed="10" />
    <trip id="40" depart="92.0" from="ce3" to="ce4" type="standard_car" departLane="random" departSpeed="10" />
    <trip id="41" depart="95.0" from="ce6" to="ce5" type="standard_car" departLane="random" departSpeed="10" />
    <trip id="42" depart="103.0" from="ce6" to="ce7" type="standard_car" departLane="random" departSpeed="10" />
    <trip id="43" depart="105.0" from="ce3" to="ce4" type="standard_car" departLane="random" departSpeed="10" />
    <trip id="44" depart="106.0" from="ce6" to="ce4" type="standard_car" departLane="random" departSpeed="10" />
    <trip id="45" depart="108.0" from="ce6" to="ce5" type="standard_car" departLane="random" departSpeed="10" />
    <trip id="46" depart="111.0" from="ce3" to="ce5" type="standard_car" departLane="random" departSpeed="10" />
    <trip id="47" depart="112.0" from="ce3" to="ce4" type="standard_car" departLane="random" departSpeed="10" />
    <trip id="48" depart="113.0" from="ce3" to="ce7" type="standard_car" departLane="random" departSpeed="10" />
    <trip id="49" depart="115.0" from="ce1" to="ce4" type="standard_car" departLane="random" departSpeed="10" />
    <trip id="50" depart="115.0" from="ce6" to="ce4" type="standard_car" departLane="random" departSpeed="10" />
    <trip id="51" depart="115.0" from="ce6" to="ce2" type="standard_car" departLane="random" departSpeed="10" />
    <trip id="52" depart="117.0" from="ce6" to="ce2" type="standard_car" departLane="random" departSpeed="10" />
    <trip id="53" depart="117.0" from="ce6" to="ce2" type="standard_car" departLane="random" departSpeed="10" />
    <trip id="54" depart="117.0" from="ce6" to="ce2" type="standard_car" departLane="random" departSpeed="10" />
    <trip id="55" depart="120.0" from="ce6" to="ce2" type="standard_car" departLane="random" departSpeed="10" />
    <trip id="56" depart="122.0" from="ce6" to="ce7" type="standard_car" departLane="random" departSpeed="10" />
    <trip id="57" depart="123.0" from="ce6" to="ce2" type="standard_car" departLane="random" departSpeed="10" />
    <trip id="58" depart="124.0" from="ce6" to="ce5" type="standard_car" departLane="random" departSpeed="10" />
    <trip id="59" depart="124.0" from="ce6" to="ce2" type="standard_car" departLane="random" departSpeed="10" />
    <trip id="60" depart="127.0" from="ce3" to="ce5" type="standard_car" departLane="random" departSpeed="10" />
    <trip id="61" depart="127.0" from="ce6" to="ce7" type="standard_car" departLane="random" departSpeed="10" />
    <trip id="62" depart="133.0" from="ce6" to="ce7" type="standard_car" departLane="random" departSpeed="10" />
    <trip id="63" depart="134.0" from="ce6" to="ce5" type="standard_car" departLane="random" departSpeed="10" />
    <trip id="64" depart="135.0" from="ce6" to="ce7" type="standard_car" departLane="random" departSpeed="10" />
    <trip id="65" depart="135.0" from="ce3" to="ce4" type="standard_car" departLane="random" departSpeed="10" />
    <trip id="66" depart="136.0" from="ce3" to="ce2" type="standard_car" departLane="random" departSpeed="10" />
    <trip id="67" depart="145.0" from="ce1" to="ce5" type="standard_car" departLane="random" departSpeed="10" />
    <trip id="68" depart="146.0" from="ce3" to="ce7" type="standard_car" departLane="random" departSpeed="10" />
    <trip id="69" depart="148.0" from="ce3" to="ce5" type="standard_car" departLane="random" departSpeed="10" />
    <trip id="70" depart="152.0" from="ce6" to="ce7" type="standard_car" departLane="random" departSpeed="10" />
    <trip id="71" depart="156.0" from="ce3" to="ce4" type="standard_car" departLane="random" departSpeed="10" />
    <trip id="72" depart="156.0" from="ce3" to="ce2" type="standard_car" departLane="random" departSpeed="10" />
    <trip id="73" depart="159.0" from="ce6" to="ce4" type="standard_car" departLane="random" departSpeed="10" />
    <trip id="74" depart="159.0" from="ce6" to="ce5" type="standard_car" departLane="random" departSpeed="10" />
    <trip id="75" depart="160.0" from="ce3" to="ce7" type="standard_car" departLane="random" departSpeed="10" />
    <trip id="76" depart="165.0" from="ce1" to="ce5" type="standard_car" departLane="random" departSpeed="10" />
    <trip id="77" depart="166.0" from="ce3" to="ce5" type="standard_car" departLane="random" departSpeed="10" />
    <trip id="78" depart="167.0" from="ce6" to="ce7" type="standard_car" departLane="random" departSpeed="10" />
    <trip id="79" depart="167.0" from="ce6" to="ce4" type="standard_car" departLane="random" departSpeed="10" />
    <trip id="80" depart="170.0" from="ce3" to="ce7" type="standard_car" departLane="random" departSpeed="10" />
    <trip id="81" depart="173.0" from="ce6" to="ce7" type="standard_car" departLane="random" departSpeed="10" />
    <trip id="82" depart="174.0" from="ce6" to="ce5" type="standard_car" departLane="random" departSpeed="10" />
    <trip id="83" depart="178.0" from="ce1" to="ce7" type="standard_car" departLane="random" departSpeed="10" />
    <trip id="84" depart="183.0" from="ce3" to="ce5" type="standard_car" departLane="random" departSpeed="10" />
    <trip id="85" depart="185.0" from="ce3" to="ce4" type="standard_car" departLane="random" departSpeed="10" />
    <trip id="86" depart="189.0" from="ce3" to="ce7" type="standard_car" departLane="random" departSpeed="10" />
    <trip id="87" depart="192.0" from="ce3" to="ce4" type="standard_car" departLane="random" departSpeed="10" />
    <trip id="88" depart="194.0" from="ce6" to="ce4" type="standard_car" departLane="random" departSpeed="10" />
    <trip id="89" depart="195.0" from="ce6" to="ce4" type="standard_car" departLane="random" departSpeed="10" />
    <trip id="90" depart="195.0" from="ce3" to="ce2" type="standard_car" departLane="random" departSpeed="10" />
    <trip id="91" depart="195.0" from="ce3" to="ce7" type="standard_car" departLane="random" departSpeed="10" />
    <trip id="92" depart="196.0" from="ce6" to="ce4" type="standard_car" departLane="random" departSpeed="10" />
    <trip id="93" depart="197.0" from="ce6" to="ce2" type="standard_car" departLane="random" departSpeed="10" />
    <trip id="94" depart="198.0" from="ce6" to="ce5" type="standard_car" departLane="random" departSpeed="10" />
    <trip id="95" depart="203.0" from="ce3" to="ce2" type="standard_car" departLane="random" departSpeed="10" />
    <trip id="96" depart="206.0" from="ce6" to="ce4" type="standard_car" departLane="random" departSpeed="10" />
    <trip id="97" depart="209.0" from="ce6" to="ce7" type="standard_car" departLane="random" departSpeed="10" />
    <trip id="98" depart="210.0" from="ce6" to="ce2" type="standard_car" departLane="random" departSpeed="10" />
    <trip id="99" depart="211.0" from="ce6" to="ce5" type="standard_car" departLane="random" departSpeed="10" />
    <trip id="100" depart="214.0" from="ce6" to="ce2" type="standard_car" departLane="random" departSpeed="10" />
    <trip id="101" depart="216.0" from="ce6" to="ce2" type="standard_car" departLane="random" departSpeed="10" />
    <trip id="102" depart="218.0" from="ce1" to="ce7" type="standard_car" departLane="random" departSpeed="10" />
    <trip id="103" depart="219.0" from="ce6" to="ce5" type="standard_car" departLane="random" departSpeed="10" />
    <trip id="104" depart="219.0" from="ce6" to="ce2" type="standard_car" departLane="random" departSpeed="10" />
    <trip id="105" depart="220.0" from="ce3" to="ce2" type="standard_car" departLane="random" departSpeed="10" />
    <trip id="106" depart="221.0" from="ce6" to="ce2" type="standard_car" departLane="random" departSpeed="10" />
    <trip id="107" depart="224.0" from="ce6" to="ce4" type="standard_car" departLane="random" departSpeed="10" />
    <trip id="108" depart="227.0" from="ce3" to="ce7" type="standard_car" departLane="random" departSpeed="10" />
    <trip id="109" depart="231.0" from="ce6" to="ce4" type="standard_car" departLane="random" departSpeed="10" />
    <trip id="110" depart="231.0" from="ce6" to="ce7" type="standard_car" departLane="random" departSpeed="10" />
    <trip id="111" depart="232.0" from="ce3" to="ce2" type="standard_car" departLane="random" departSpeed="10" />
    <trip id="112" depart="233.0" from="ce6" to="ce7" type="standard_car" departLane="random" departSpeed="10" />
    <trip id="113" depart="235.0" from="ce6" to="ce2" type="standard_car" departLane="random" departSpeed="10" />
    <trip id="114" depart="236.0" from="ce6" to="ce5" type="standard_car" departLane="random" departSpeed="10" />
    <trip id="115" depart="243.0" from="ce3" to="ce2" type="standard_car" departLane="random" departSpeed="10" />
    <trip id="116" depart="244.0" from="ce6" to="ce4" type="standard_car" departLane="random" departSpeed="10" />
    <trip id="117" depart="244.0" from="ce1" to="ce5" type="standard_car" departLane="random" departSpeed="10" />
    <trip id="118" depart="248.0" from="ce3" to="ce5" type="standard_car" departLane="random" departSpeed="10" />
    <trip id="119" depart="253.0" from="ce6" to="ce2" type="standard_car" departLane="random" departSpeed="10" />
    <trip id="120" depart="254.0" from="ce3" to="ce7" type="standard_car" departLane="random" departSpeed="10" />
    <trip id="121" depart="255.0" from="ce1" to="ce4" type="standard_car" departLane="random" departSpeed="10" />
    <trip id="122" depart="256.0" from="ce3" to="ce5" type="standard_car" departLane="random" departSpeed="10" />
    <trip id="123" depart="259.0" from="ce6" to="ce4" type="standard_car" departLane="random" departSpeed="10" />
    <trip id="124" depart="259.0" from="ce6" to="ce7" type="standard_car" departLane="random" departSpeed="10" />
    <trip id="125" depart="262.0" from="ce8" to="ce7" type="standard_car" departLane="random" departSpeed="10" />
    <trip id="126" depart="265.0" from="ce6" to="ce7" type="standard_car" departLane="random" departSpeed="10" />
    <trip id="127" depart="266.0" from="ce3" to="ce5" type="standard_car" departLane="random" departSpeed="10" />
    <trip id="128" depart="267.0" from="ce3" to="ce4" type="standard_car" departLane="random" departSpeed="10" />
    <trip id="129" depart="267.0" from="ce6" to="ce4" type="standard_car" departLane="random" departSpeed="10" />
    <trip id="130" depart="274.0" from="ce6" to="ce7" type="standard_car" departLane="random" departSpeed="10" />
    <trip id="131" depart="277.0" from="ce6" to="ce5" type="standard_car" departLane="random" departSpeed="10" />
    <trip id="132" depart="280.0" from="ce6" to="ce7" type="standard_car" departLane="random" departSpeed="10" />
    <trip id="133" depart="281.0" from="ce6" to="ce2" type="standard_car" departLane="random" departSpeed="10" />
    <trip id="134" depart="283.0" from="ce6" to="ce4" type="standard_car" departLane="random" departSpeed="10" />
    <trip id="135" depart="283.0" from="ce6" to="ce5" type="standard_car" departLane="random" departSpeed="10" />
    <trip id="136" depart="285.0" from="ce3" to="ce5" type="standard_car" departLane="random" departSpeed="10" />
    <trip id="137" depart="286.0" from="ce6" to="ce7" type="standard_car" departLane="random" departSpeed="10" />
    <trip id="138" depart="286.0" from="ce6" to="ce2" type="standard_car" departLane="random" departSpeed="10" />
    <trip id="139" depart="287.0" from="ce6" to="ce4" type="standard_car" departLane="random" departSpeed="10" />
    <trip id="140" depart="287.0" from="ce3" to="ce7" type="standard_car" departLane="random" departSpeed="10" />
    <trip id="141" depart="298.0" from="ce3" to="ce4" type="standard_car" departLane="random" departSpeed="10" />
    <trip id="142" depart="301.0" from="ce6" to="ce4" type="standard_car" departLane="random" departSpeed="10" />
    <trip id="143" depart="302.0" from="ce6" to="ce2" type="standard_car" departLane="random" departSpeed="10" />
    <trip id="144" depart="309.0" from="ce6" to="ce2" type="standard_car" departLane="random" departSpeed="10" />
    <trip id="145" depart="314.0" from="ce6" to="ce7" type="standard_car" departLane="random" departSpeed="10" />
    <trip id="146" depart="316.0" from="ce3" to="ce2" type="standard_car" departLane="random" departSpeed="10" />
    <trip id="147" depart="316.0" from="ce6" to="ce4" type="standard_car" departLane="random" departSpeed="10" />
    <trip id="148" depart="316.0" from="ce6" to="ce2" type="standard_car" departLane="random" departSpeed="10" />
    <trip id="149" depart="316.0" from="ce6" to="ce7" type="standard_car" departLane="random" departSpeed="10" />
    <trip id="150" depart="318.0" from="ce3" to="ce2" type="standard_car" departLane="random" departSpeed="10" />
    <trip id="151" depart="323.0" from="ce8" to="ce4" type="standard_car" departLane="random" departSpeed="10" />
    <trip id="152" depart="327.0" from="ce6" to="ce7" type="standard_car" departLane="random" departSpeed="10" />
    <trip id="153" depart="332.0" from="ce6" to="ce2" type="standard_car" departLane="random" departSpeed="10" />
    <trip id="154" depart="332.0" from="ce3" to="ce2" type="standard_car" departLane="random" departSpeed="10" />
    <trip id="155" depart="333.0" from="ce6" to="ce2" type="standard_car" departLane="random" departSpeed="10" />
    <trip id="156" depart="333.0" from="ce6" to="ce5" type="standard_car" departLane="random" departSpeed="10" />
    <trip id="157" depart="341.0" from="ce1" to="ce4" type="standard_car" departLane="random" departSpeed="10" />
    <trip id="158" depart="342.0" from="ce6" to="ce2" type="standard_car" departLane="random" departSpeed="10" />
    <trip id="159" depart="342.0" from="ce6" to="ce5" type="standard_car" departLane="random" departSpeed="10" />
    <trip id="160" depart="343.0" from="ce3" to="ce5" type="standard_car" departLane="random" departSpeed="10" />
    <trip id="161" depart="343.0" from="ce6" to="ce2" type="standard_car" departLane="random" departSpeed="10" />
    <trip id="162" depart="344.0" from="ce6" to="ce2" type="standard_car" departLane="random" departSpeed="10" />
    <trip id="163" depart="344.0" from="ce6" to="ce4" type="standard_car" departLane="random" departSpeed="10" />
    <trip id="164" depart="345.0" from="ce6" to="ce4" type="standard_car" departLane="random" departSpeed="10" />
    <trip id="165" depart="351.0" from="ce1" to="ce4" type="standard_car" departLane="random" departSpeed="10" />
    <trip id="166" depart="352.0" from="ce8" to="ce4" type="standard_car" departLane="random" departSpeed="10" />
    <trip id="167" depart="354.0" from="ce3" to="ce5" type="standard_car" departLane="random" departSpeed="10" />
    <trip id="168" depart="356.0" from="ce3" to="ce4" type="standard_car" departLane="random" departSpeed="10" />
    <trip id="169" depart="358.0" from="ce1" to="ce5" type="standard_car" departLane="random" departSpeed="10" />
    <trip id="170" depart="360.0" from="ce6" to="ce5" type="standard_car" departLane="random" departSpeed="10" />
    <trip id="171" depart="360.0" from="ce6" to="ce2" type="standard_car" departLane="random" departSpeed="10" />
    <trip id="172" depart="362.0" from="ce3" to="ce5" type="standard_car" departLane="random" departSpeed="10" />
    <trip id="173" depart="362.0" from="ce3" to="ce7" type="standard_car" departLane="random" departSpeed="10" />
    <trip id="174" depart="362.0" from="ce6" to="ce2" type="standard_car" departLane="random" departSpeed="10" />
    <trip id="175" depart="363.0" from="ce6" to="ce2" type="standard_car" departLane="random" departSpeed="10" />
    <trip id="176" depart="365.0" from="ce6" to="ce5" type="standard_car" departLane="random" departSpeed="10" />
    <trip id="177" depart="366.0" from="ce6" to="ce5" type="standard_car" departLane="random" departSpeed="10" />
    <trip id="178" depart="368.0" from="ce6" to="ce2" type="standard_car" departLane="random" departSpeed="10" />
    <trip id="179" depart="368.0" from="ce3" to="ce2" type="standard_car" departLane="random" departSpeed="10" />
    <trip id="180" depart="369.0" from="ce3" to="ce2" type="standard_car" departLane="random" departSpeed="10" />
    <trip id="181" depart="371.0" from="ce6" to="ce7" type="standard_car" departLane="random" departSpeed="10" />
    <trip id="182" depart="371.0" from="ce3" to="ce5" type="standard_car" departLane="random" departSpeed="10" />
    <trip id="183" depart="372.0" from="ce6" to="ce4" type="standard_car" departLane="random" departSpeed="10" />
    <trip id="184" depart="381.0" from="ce3" to="ce5" type="standard_car" departLane="random" departSpeed="10" />
    <trip id="185" depart="381.0" from="ce6" to="ce4" type="standard_car" departLane="random" departSpeed="10" />
    <trip id="186" depart="382.0" from="ce6" to="ce4" type="standard_car" departLane="random" departSpeed="10" />
    <trip id="187" depart="383.0" from="ce3" to="ce4" type="standard_car" departLane="random" departSpeed="10" />
    <trip id="188" depart="383.0" from="ce6" to="ce4" type="standard_car" departLane="random" departSpeed="10" />
    <trip id="189" depart="383.0" from="ce6" to="ce7" type="standard_car" departLane="random" departSpeed="10" />
    <trip id="190" depart="387.0" from="ce3" to="ce4" type="standard_car" departLane="random" departSpeed="10" />
    <trip id="191" depart="387.0" from="ce6" to="ce7" type="standard_car" departLane="random" departSpeed="10" />
    <trip id="192" depart="387.0" from="ce8" to="ce4" type="standard_car" departLane="random" departSpeed="10" />
    <trip id="193" depart="388.0" from="ce3" to="ce7" type="standard_car" departLane="random" departSpeed="10" />
    <trip id="194" depart="389.0" from="ce6" to="ce7" type="standard_car" departLane="random" departSpeed="10" />
    <trip id="195" depart="392.0" from="ce6" to="ce7" type="standard_car" departLane="random" departSpeed="10" />
    <trip id="196" depart="393.0" from="ce6" to="ce4" type="standard_car" departLane="random" departSpeed="10" />
    <trip id="197" depart="394.0" from="ce1" to="ce5" type="standard_car" departLane="random" departSpeed="10" />
    <trip id="198" depart="396.0" from="ce6" to="ce7" type="standard_car" departLane="random" departSpeed="10" />
    <trip id="199" depart="398.0" from="ce6" to="ce2" type="standard_car" departLane="random" departSpeed="10" />
    <trip id="200" depart="399.0" from="ce3" to="ce7" type="standard_car" departLane="random" departSpeed="10" />
    <trip id="201" depart="401.0" from="ce6" to="ce5" type="standard_car" departLane="random" departSpeed="10" />
    <trip id="202" depart="401.0" from="ce6" to="ce7" type="standard_car" departLane="random" departSpeed="10" />
    <trip id="203" depart="401.0" from="ce3" to="ce7" type="standard_car" departLane="random" departSpeed="10" />
    <trip id="204" depart="404.0" from="ce6" to="ce7" type="standard_car" departLane="random" departSpeed="10" />
    <trip id="205" depart="409.0" from="ce6" to="ce4" type="standard_car" departLane="random" departSpeed="10" />
    <trip id="206" depart="418.0" from="ce6" to="ce5" type="standard_car" departLane="random" departSpeed="10" />
    <trip id="207" depart="419.0" from="ce6" to="ce5" type="standard_car" departLane="random" departSpeed="10" />
    <trip id="208" depart="420.0" from="ce6" to="ce2" type="standard_car" departLane="random" departSpeed="10" />
    <trip id="209" depart="421.0" from="ce6" to="ce7" type="standard_car" departLane="random" departSpeed="10" />
    <trip id="210" depart="424.0" from="ce6" to="ce7" type="standard_car" departLane="random" departSpeed="10" />
    <trip id="211" depart="426.0" from="ce6" to="ce2" type="standard_car" departLane="random" departSpeed="10" />
    <trip id="212" depart="428.0" from="ce6" to="ce2" type="standard_car" departLane="random" departSpeed="10" />
    <trip id="213" depart="429.0" from="ce3" to="ce4" type="standard_car" departLane="random" departSpeed="10" />
    <trip id="214" depart="431.0" from="ce3" to="ce2" type="standard_car" departLane="random" departSpeed="10" />
    <trip id="215" depart="431.0" from="ce3" to="ce5" type="standard_car" departLane="random" departSpeed="10" />
    <trip id="216" depart="433.0" from="ce3" to="ce5" type="standard_car" departLane="random" departSpeed="10" />
    <trip id="217" depart="434.0" from="ce6" to="ce4" type="standard_car" departLane="random" departSpeed="10" />
    <trip id="218" depart="437.0" from="ce6" to="ce2" type="standard_car" departLane="random" departSpeed="10" />
    <trip id="219" depart="438.0" from="ce6" to="ce2" type="standard_car" departLane="random" departSpeed="10" />
    <trip id="220" depart="440.0" from="ce6" to="ce2" type="standard_car" departLane="random" departSpeed="10" />
    <trip id="221" depart="442.0" from="ce6" to="ce2" type="standard_car" departLane="random" departSpeed="10" />
    <trip id="222" depart="444.0" from="ce6" to="ce7" type="standard_car" departLane="random" departSpeed="10" />
    <trip id="223" depart="448.0" from="ce6" to="ce4" type="standard_car" departLane="random" departSpeed="10" />
    <trip id="224" depart="448.0" from="ce6" to="ce5" type="standard_car" departLane="random" departSpeed="10" />
    <trip id="225" depart="448.0" from="ce6" to="ce2" type="standard_car" departLane="random" departSpeed="10" />
    <trip id="226" depart="451.0" from="ce6" to="ce7" type="standard_car" departLane="random" departSpeed="10" />
    <trip id="227" depart="460.0" from="ce6" to="ce2" type="standard_car" departLane="random" departSpeed="10" />
    <trip id="228" depart="460.0" from="ce1" to="ce4" type="standard_car" departLane="random" departSpeed="10" />
    <trip id="229" depart="461.0" from="ce3" to="ce7" type="standard_car" departLane="random" departSpeed="10" />
    <trip id="230" depart="463.0" from="ce6" to="ce5" type="standard_car" departLane="random" departSpeed="10" />
    <trip id="231" depart="468.0" from="ce3" to="ce5" type="standard_car" departLane="random" departSpeed="10" />
    <trip id="232" depart="468.0" from="ce6" to="ce4" type="standard_car" departLane="random" departSpeed="10" />
    <trip id="233" depart="478.0" from="ce3" to="ce5" type="standard_car" departLane="random" departSpeed="10" />
    <trip id="234" depart="482.0" from="ce3" to="ce7" type="standard_car" departLane="random" departSpeed="10" />
    <trip id="235" depart="485.0" from="ce3" to="ce7" type="standard_car" departLane="random" departSpeed="10" />
    <trip id="236" depart="485.0" from="ce6" to="ce5" type="standard_car" departLane="random" departSpeed="10" />
    <trip id="237" depart="486.0" from="ce6" to="ce7" type="standard_car" departLane="random" departSpeed="10" />
    <trip id="238" depart="487.0" from="ce3" to="ce7" type="standard_car" departLane="random" departSpeed="10" />
    <trip id="239" depart="491.0" from="ce6" to="ce2" type="standard_car" departLane="random" departSpeed="10" />
    <trip id="240" depart="493.0" from="ce6" to="ce2" type="standard_car" departLane="random" departSpeed="10" />
    <trip id="241" depart="496.0" from="ce1" to="ce2" type="standard_car" departLane="random" departSpeed="10" />
    <trip id="242" depart="497.0" from="ce8" to="ce2" type="standard_car" departLane="random" departSpeed="10" />
    <trip id="243" depart="497.0" from="ce6" to="ce2" type="standard_car" departLane="random" departSpeed="10" />
    <trip id="244" depart="498.0" from="ce6" to="ce7" type="standard_car" departLane="random" departSpeed="10" />
    <trip id="245" depart="498.0" from="ce6" to="ce7" type="standard_car" departLane="random" departSpeed="10" />
    <trip id="246" depart="501.0" from="ce1" to="ce4" type="standard_car" departLane="random" departSpeed="10" />
    <trip id="247" depart="503.0" from="ce6" to="ce4" type="standard_car" departLane="random" departSpeed="10" />
    <trip id="248" depart="506.0" from="ce6" to="ce2" type="standard_car" departLane="random" departSpeed="10" />
    <trip id="249" depart="510.0" from="ce6" to="ce7" type="standard_car" departLane="random" departSpeed="10" />
    <trip id="250" depart="512.0" from="ce6" to="ce7" type="standard_car" departLane="random" departSpeed="10" />
    <trip id="251" depart="513.0" from="ce3" to="ce5" type="standard_car" departLane="random" departSpeed="10" />
    <trip id="252" depart="517.0" from="ce6" to="ce2" type="standard_car" departLane="random" departSpeed="10" />
    <trip id="253" depart="521.0" from="ce6" to="ce7" type="standard_car" departLane="random" departSpeed="10" />
    <trip id="254" depart="522.0" from="ce6" to="ce4" type="standard_car" departLane="random" departSpeed="10" />
    <trip id="255" depart="523.0" from="ce3" to="ce7" type="standard_car" departLane="random" departSpeed="10" />
    <trip id="256" depart="523.0" from="ce3" to="ce2" type="standard_car" departLane="random" departSpeed="10" />
    <trip id="257" depart="524.0" from="ce1" to="ce2" type="standard_car" departLane="random" departSpeed="10" />
    <trip id="258" depart="524.0" from="ce6" to="ce7" type="standard_car" departLane="random" departSpeed="10" />
    <trip id="259" depart="530.0" from="ce1" to="ce4" type="standard_car" departLane="random" departSpeed="10" />
    <trip id="260" depart="536.0" from="ce3" to="ce2" type="standard_car" departLane="random" departSpeed="10" />
    <trip id="261" depart="538.0" from="ce6" to="ce7" type="standard_car" departLane="random" departSpeed="10" />
    <trip id="262" depart="540.0" from="ce6" to="ce7" type="standard_car" departLane="random" departSpeed="10" />